LAMMPS (10 Feb 2021)

clear
atom_style atomic
units metal
boundary p p p
atom_modify sort 0 0.0

# read_data /path/to/data.data
read_data /home/dux/surface_sampling/sgmc_surf/GaN/lammps.data
Reading data file ...
  triclinic box = (0.0000000 0.0000000 0.0000000) to (9.6488700 8.3561665 23.265800) with tilt (-4.8244350 0.0000000 0.0000000)
  reading atoms ...
  48 atoms

### set bulk
group bulk id <= 36
36 atoms in group bulk
group surface id > 36
12 atoms in group surface

### interactions
pair_style tersoff
# pair_coeff * * /path/to/potential Atom1 Atom2
pair_coeff * * GaN.tersoff Ga N
Reading tersoff potential file GaN.tersoff with DATE: 2007-10-22
mass 1 69.723000
mass 2 14.007000

### run
reset_timestep 0
velocity surface create 100.0 87287 dist gaussian

fix 1 all nvt temp 100.0 0.1 $(100.0*dt)
fix 1 all nvt temp 100.0 0.1 0.10000000000000000555

# set bulk forces and velocities to 0
fix 2 bulk setforce 0.0 0.0 0.0
velocity bulk set 0.0 0.0 0.0

thermo 10 # output thermodynamic variables every N timesteps

thermo_style custom step temp pe press cpu pxx pyy pzz pxy pxz pyz ke etotal vol lx ly lz atoms
thermo_modify flush yes format float %23.16g
# min_style cg
# minimize 1e-5 1e-5 500 10000

timestep 0.001
run 3000
  update every 1 steps, delay 10 steps, check yes
Step Temp PotEng Press CPU Pxx Pyy Pzz Pxy Pxz Pyz KinEng TotEng Volume Lx Ly Lz Atoms
0       23.40425531914894      -180.2260107297884      -14091.00347877591                       0      -13368.51047292373      -16883.08862806456      -12021.41133533945       757.9314440420326       -393.911987297343       712.2291221633251            0.1421861595      -180.0838245702884       1875.864792975853       9.648870000000001       8.356166537813557                 23.2658       48
Averages over the last 151 of 301 rows, steps 1500 to 3000:
Temp PotEng Press Pxx Pyy Pzz Pxy Pxz Pyz KinEng TotEng Volume Lx Ly Lz Atoms
27.1007 -180.105 -15523.2 -15308.8 -19186.1 -12074.7 241.38 -182.252 71.8657 0.164643 -179.94 1875.86 9.64887 8.35617 23.2658 48
Loop time of 0.439823 on 1 procs for 3000 steps with 48 atoms

# write_data /path/to/data.out
write_data /home/dux/surface_sampling/sgmc_surf/GaN/lammps.out
System init for write_data ...
print "_end of MD_"
_end of MD_
log /dev/stdout
